Version 4
SHEET 1 1252 680
WIRE 288 -576 256 -576
WIRE 128 -560 80 -560
WIRE 176 -560 128 -560
WIRE 384 -544 256 -544
WIRE 176 -528 160 -528
WIRE 304 -512 256 -512
WIRE 512 -512 304 -512
WIRE 752 -512 512 -512
WIRE 160 -432 160 -528
WIRE 304 -432 160 -432
WIRE 288 -224 256 -224
WIRE 128 -208 80 -208
WIRE 176 -208 128 -208
WIRE 752 -208 752 -512
WIRE 1024 -208 752 -208
WIRE 384 -192 256 -192
WIRE 176 -176 160 -176
WIRE 304 -160 256 -160
WIRE 512 -160 304 -160
WIRE 1024 -160 512 -160
WIRE 1024 -112 752 -112
WIRE 160 -80 160 -176
WIRE 304 -80 160 -80
WIRE 288 128 256 128
WIRE 128 144 80 144
WIRE 176 144 128 144
WIRE 384 160 256 160
WIRE 176 176 160 176
WIRE 304 192 256 192
WIRE 512 192 304 192
WIRE 752 192 752 -112
WIRE 752 192 512 192
WIRE 160 272 160 176
WIRE 304 272 160 272
FLAG 0 144 0
FLAG 368 128 0
FLAG 464 160 0
FLAG 304 352 0
FLAG 0 -208 0
FLAG 368 -224 0
FLAG 464 -192 0
FLAG 304 0 0
FLAG 0 -560 0
FLAG 368 -576 0
FLAG 464 -544 0
FLAG 304 -352 0
FLAG 128 144 Micro1
FLAG 128 -208 Micro2
FLAG 128 -560 Micro3
FLAG 512 192 Signal1
FLAG 512 -160 Signal2
FLAG 512 -512 Signal3
SYMBOL AutoGenerated\\LM741_NS 208 160 R0
SYMATTR InstName U1
SYMBOL Misc\\signal 96 144 R90
WINDOW 0 -32 56 VBottom 2
WINDOW 3 32 56 VTop 2
WINDOW 123 0 0 Left 0
WINDOW 39 0 0 Left 0
SYMATTR InstName V1
SYMATTR Value SINE(0 1m {frequence})
SYMBOL Misc\\signal 272 128 R270
WINDOW 0 32 56 VTop 2
WINDOW 3 -32 56 VBottom 2
WINDOW 123 0 0 Left 0
WINDOW 39 0 0 Left 0
SYMATTR InstName V2
SYMATTR Value 15
SYMBOL Misc\\signal 368 160 R270
WINDOW 0 32 56 VTop 2
WINDOW 3 -32 56 VBottom 2
WINDOW 123 0 0 Left 0
WINDOW 39 0 0 Left 0
SYMATTR InstName V3
SYMATTR Value -15
SYMBOL res 288 176 R0
SYMATTR InstName R1
SYMATTR Value {ampliAntenneRes1}
SYMBOL res 288 256 R0
SYMATTR InstName R2
SYMATTR Value {ampliAntenneRes2}
SYMBOL AutoGenerated\\LM741_NS 208 -192 R0
SYMATTR InstName U2
SYMBOL Misc\\signal 96 -208 R90
WINDOW 0 -32 56 VBottom 2
WINDOW 3 32 56 VTop 2
WINDOW 123 0 0 Left 0
WINDOW 39 0 0 Left 0
SYMATTR InstName V4
SYMATTR Value SINE(0 1m {frequence} 0 0 90)
SYMBOL Misc\\signal 272 -224 R270
WINDOW 0 32 56 VTop 2
WINDOW 3 -32 56 VBottom 2
WINDOW 123 0 0 Left 0
WINDOW 39 0 0 Left 0
SYMATTR InstName V5
SYMATTR Value 15
SYMBOL Misc\\signal 368 -192 R270
WINDOW 0 32 56 VTop 2
WINDOW 3 -32 56 VBottom 2
WINDOW 123 0 0 Left 0
WINDOW 39 0 0 Left 0
SYMATTR InstName V6
SYMATTR Value -15
SYMBOL res 288 -176 R0
SYMATTR InstName R3
SYMATTR Value {ampliAntenneRes1}
SYMBOL res 288 -96 R0
SYMATTR InstName R4
SYMATTR Value {ampliAntenneRes2}
SYMBOL AutoGenerated\\LM741_NS 208 -544 R0
SYMATTR InstName U3
SYMBOL Misc\\signal 96 -560 R90
WINDOW 0 -32 56 VBottom 2
WINDOW 3 32 56 VTop 2
WINDOW 123 0 0 Left 0
WINDOW 39 0 0 Left 0
SYMATTR InstName V7
SYMATTR Value SINE(0 1m {frequence})
SYMBOL Misc\\signal 272 -576 R270
WINDOW 0 32 56 VTop 2
WINDOW 3 -32 56 VBottom 2
WINDOW 123 0 0 Left 0
WINDOW 39 0 0 Left 0
SYMATTR InstName V8
SYMATTR Value 15
SYMBOL Misc\\signal 368 -544 R270
WINDOW 0 32 56 VTop 2
WINDOW 3 -32 56 VBottom 2
WINDOW 123 0 0 Left 0
WINDOW 39 0 0 Left 0
SYMATTR InstName V9
SYMATTR Value -15
SYMBOL res 288 -528 R0
SYMATTR InstName R5
SYMATTR Value {ampliAntenneRes1}
SYMBOL res 288 -448 R0
SYMATTR InstName R6
SYMATTR Value {ampliAntenneRes2}
TEXT -144 648 Left 2 !.tran 1
TEXT -24 512 Left 2 !.PARAM ampliAntenneRes1 = 50k\n.PARAM ampliAntenneRes2 = 200\n.PARAM frequence = 300
