Version 4
SHEET 1 3772 928
WIRE 384 -768 384 -800
WIRE 704 -656 624 -656
WIRE 176 -640 128 -640
WIRE 256 -640 176 -640
WIRE 384 -640 384 -688
WIRE 384 -640 336 -640
WIRE 400 -640 384 -640
WIRE 528 -640 464 -640
WIRE 560 -640 528 -640
WIRE 656 -624 624 -624
WIRE 880 -624 656 -624
WIRE 528 -528 528 -640
WIRE 560 -528 528 -528
WIRE 656 -528 656 -624
WIRE 656 -528 640 -528
WIRE 384 -448 384 -640
WIRE 576 -448 384 -448
WIRE 656 -448 656 -528
WIRE 656 -448 640 -448
WIRE 1136 -416 1136 -560
WIRE 1136 -416 1120 -416
WIRE 1152 -416 1136 -416
WIRE 1600 -416 1600 -560
WIRE 1600 -416 1584 -416
WIRE 1616 -416 1600 -416
WIRE 2064 -416 2064 -560
WIRE 2064 -416 2048 -416
WIRE 2080 -416 2064 -416
WIRE 1024 -368 1024 -448
WIRE 1056 -368 1056 -416
WIRE 1488 -368 1488 -448
WIRE 1520 -368 1520 -416
WIRE 1952 -368 1952 -448
WIRE 1984 -368 1984 -416
WIRE 1136 -352 1136 -416
WIRE 1600 -352 1600 -416
WIRE 2064 -352 2064 -416
WIRE 384 -304 384 -336
WIRE 1040 -288 1040 -304
WIRE 1136 -288 1136 -352
WIRE 1136 -288 1040 -288
WIRE 1504 -288 1504 -304
WIRE 1600 -288 1600 -352
WIRE 1600 -288 1504 -288
WIRE 1968 -288 1968 -304
WIRE 2064 -288 2064 -352
WIRE 2064 -288 1968 -288
WIRE 880 -208 880 -624
WIRE 944 -208 880 -208
WIRE 1728 -208 944 -208
WIRE 1936 -208 1936 -304
WIRE 1936 -208 1728 -208
WIRE 2144 -208 1936 -208
WIRE 704 -192 624 -192
WIRE 176 -176 128 -176
WIRE 256 -176 176 -176
WIRE 384 -176 384 -224
WIRE 384 -176 336 -176
WIRE 400 -176 384 -176
WIRE 528 -176 464 -176
WIRE 560 -176 528 -176
WIRE 656 -160 624 -160
WIRE 944 -160 656 -160
WIRE 1168 -160 944 -160
WIRE 1472 -160 1472 -304
WIRE 1472 -160 1168 -160
WIRE 2144 -160 1472 -160
WIRE 944 -112 880 -112
WIRE 1008 -112 1008 -304
WIRE 1008 -112 944 -112
WIRE 1568 -112 1008 -112
WIRE 2144 -112 1568 -112
WIRE 528 -64 528 -176
WIRE 560 -64 528 -64
WIRE 656 -64 656 -160
WIRE 656 -64 640 -64
WIRE 384 16 384 -176
WIRE 576 16 384 16
WIRE 656 16 656 -64
WIRE 656 16 640 16
WIRE 1008 32 1008 -112
WIRE 1024 32 1008 32
WIRE 1152 32 1120 32
WIRE 1568 32 1568 -112
WIRE 1584 32 1568 32
WIRE 1712 32 1680 32
WIRE 1136 64 1136 16
WIRE 1136 64 1120 64
WIRE 1696 64 1696 16
WIRE 1696 64 1680 64
WIRE 1024 96 1008 96
WIRE 1584 96 1568 96
WIRE 1168 128 1168 -160
WIRE 1168 128 1120 128
WIRE 1728 128 1728 -208
WIRE 1728 128 1680 128
WIRE 1008 144 1008 96
WIRE 1152 144 1152 32
WIRE 1568 144 1568 96
WIRE 1712 144 1712 32
WIRE 384 160 384 128
WIRE 1216 224 1152 224
WIRE 1232 224 1216 224
WIRE 1776 224 1712 224
WIRE 1792 224 1776 224
WIRE 704 272 624 272
WIRE 176 288 128 288
WIRE 256 288 176 288
WIRE 384 288 384 240
WIRE 384 288 336 288
WIRE 400 288 384 288
WIRE 528 288 464 288
WIRE 560 288 528 288
WIRE 656 304 624 304
WIRE 880 304 880 -112
WIRE 880 304 656 304
WIRE 528 400 528 288
WIRE 560 400 528 400
WIRE 656 400 656 304
WIRE 656 400 640 400
WIRE 384 480 384 288
WIRE 576 480 384 480
WIRE 656 480 656 400
WIRE 656 480 640 480
FLAG 48 288 0
FLAG 48 -176 0
FLAG 48 -640 0
FLAG 176 288 Micro1
FLAG 176 -176 Micro2
FLAG 176 -640 Micro3
FLAG 1024 64 0
FLAG 1024 128 0
FLAG 1120 96 0
FLAG 1136 -64 0
FLAG 1008 224 0
FLAG 1152 144 SortieMult1
FLAG 992 -448 0
FLAG 1024 -528 0
FLAG 1216 -416 0
FLAG 1216 -352 0
FLAG 1136 -560 SortieCrete1
FLAG 1456 -448 0
FLAG 1488 -528 0
FLAG 1680 -416 0
FLAG 1680 -352 0
FLAG 1600 -560 SortieCrete2
FLAG 1920 -448 0
FLAG 1952 -528 0
FLAG 2144 -416 0
FLAG 2144 -352 0
FLAG 2064 -560 SortieCrete3
FLAG 1152 288 0
FLAG 1216 224 SortiePB1
FLAG 1584 64 0
FLAG 1584 128 0
FLAG 1680 96 0
FLAG 1696 -64 0
FLAG 1568 224 0
FLAG 1712 144 SortieMult2
FLAG 1712 288 0
FLAG 1776 224 SortiePB2
FLAG 704 240 0
FLAG 784 272 0
FLAG 560 256 0
FLAG 384 128 0
FLAG 704 -224 0
FLAG 784 -192 0
FLAG 560 -208 0
FLAG 384 -336 0
FLAG 704 -688 0
FLAG 784 -656 0
FLAG 560 -672 0
FLAG 384 -800 0
FLAG 944 -112 Signal1
FLAG 944 -160 Signal2
FLAG 944 -208 Signal3
SYMBOL Misc\\signal 144 288 R90
WINDOW 0 -32 56 VBottom 2
WINDOW 3 32 56 VTop 2
WINDOW 123 0 0 Left 0
WINDOW 39 0 0 Left 0
SYMATTR InstName V1
SYMATTR Value SINE(0 2m {Frequence} 0 0 {Phase1})
SYMBOL Misc\\signal 144 -176 R90
WINDOW 0 -32 56 VBottom 2
WINDOW 3 32 56 VTop 2
WINDOW 123 0 0 Left 0
WINDOW 39 0 0 Left 0
SYMATTR InstName V4
SYMATTR Value SINE(0 2m {Frequence} 0 0  {Phase2})
SYMBOL Misc\\signal 144 -640 R90
WINDOW 0 -32 56 VBottom 2
WINDOW 3 32 56 VTop 2
WINDOW 123 0 0 Left 0
WINDOW 39 0 0 Left 0
SYMATTR InstName V7
SYMATTR Value SINE(0 2m {Frequence} 0 0  {Phase3})
SYMBOL AutoGenerated\\AD835 1072 80 R0
SYMATTR InstName U4
SYMBOL voltage 1008 128 R0
WINDOW 123 0 0 Left 0
WINDOW 39 0 0 Left 0
SYMATTR InstName V10
SYMATTR Value -5
SYMBOL voltage 1136 32 R180
WINDOW 0 24 96 Left 2
WINDOW 3 24 16 Left 2
WINDOW 123 0 0 Left 0
WINDOW 39 0 0 Left 0
SYMATTR InstName V11
SYMATTR Value 5
SYMBOL AutoGenerated\\TL074 1024 -336 R270
SYMATTR InstName U5
SYMBOL schottky 1056 -400 R270
WINDOW 0 32 32 VTop 2
WINDOW 3 0 32 VBottom 2
SYMATTR InstName D1
SYMATTR Value BAT54
SYMATTR Description Diode
SYMATTR Type diode
SYMBOL cap 1152 -400 R270
WINDOW 0 33 32 VTop 2
WINDOW 3 8 49 VBottom 2
SYMATTR InstName C1
SYMATTR Value {creteCond}
SYMBOL voltage 992 -352 R180
WINDOW 0 32 56 VTop 2
WINDOW 3 -32 56 VBottom 2
WINDOW 123 0 0 Left 0
WINDOW 39 0 0 Left 0
SYMATTR InstName V12
SYMATTR Value 15
SYMBOL voltage 1024 -432 R180
WINDOW 0 32 56 VTop 2
WINDOW 3 -32 56 VBottom 2
WINDOW 123 0 0 Left 0
WINDOW 39 0 0 Left 0
SYMATTR InstName V13
SYMATTR Value -15
SYMBOL res 1120 -336 R270
WINDOW 0 13 49 VTop 2
WINDOW 3 7 78 VBottom 2
SYMATTR InstName R7
SYMATTR Value {creteRes}
SYMBOL AutoGenerated\\TL074 1488 -336 R270
SYMATTR InstName U6
SYMBOL schottky 1520 -400 R270
WINDOW 0 32 32 VTop 2
WINDOW 3 0 32 VBottom 2
SYMATTR InstName D2
SYMATTR Value BAT54
SYMATTR Description Diode
SYMATTR Type diode
SYMBOL cap 1616 -400 R270
WINDOW 0 33 32 VTop 2
WINDOW 3 8 49 VBottom 2
SYMATTR InstName C2
SYMATTR Value {creteCond}
SYMBOL voltage 1456 -352 R180
WINDOW 0 32 56 VTop 2
WINDOW 3 -32 56 VBottom 2
WINDOW 123 0 0 Left 0
WINDOW 39 0 0 Left 0
SYMATTR InstName V14
SYMATTR Value 15
SYMBOL voltage 1488 -432 R180
WINDOW 0 32 56 VTop 2
WINDOW 3 -32 56 VBottom 2
WINDOW 123 0 0 Left 0
WINDOW 39 0 0 Left 0
SYMATTR InstName V15
SYMATTR Value -15
SYMBOL res 1584 -336 R270
WINDOW 0 13 49 VTop 2
WINDOW 3 7 78 VBottom 2
SYMATTR InstName R8
SYMATTR Value {creteRes}
SYMBOL AutoGenerated\\TL074 1952 -336 R270
SYMATTR InstName U7
SYMBOL schottky 1984 -400 R270
WINDOW 0 32 32 VTop 2
WINDOW 3 0 32 VBottom 2
SYMATTR InstName D3
SYMATTR Value BAT54
SYMATTR Description Diode
SYMATTR Type diode
SYMBOL cap 2080 -400 R270
WINDOW 0 33 32 VTop 2
WINDOW 3 8 49 VBottom 2
SYMATTR InstName C3
SYMATTR Value {creteCond}
SYMBOL voltage 1920 -352 R180
WINDOW 0 32 56 VTop 2
WINDOW 3 -32 56 VBottom 2
WINDOW 123 0 0 Left 0
WINDOW 39 0 0 Left 0
SYMATTR InstName V16
SYMATTR Value 15
SYMBOL voltage 1952 -432 R180
WINDOW 0 32 56 VTop 2
WINDOW 3 -32 56 VBottom 2
WINDOW 123 0 0 Left 0
WINDOW 39 0 0 Left 0
SYMATTR InstName V17
SYMATTR Value -15
SYMBOL res 2048 -336 R270
WINDOW 0 13 49 VTop 2
WINDOW 3 7 78 VBottom 2
SYMATTR InstName R9
SYMATTR Value {creteRes}
SYMBOL res 1136 128 R0
WINDOW 3 36 61 Left 2
SYMATTR Value {multPBRes}
SYMATTR InstName R10
SYMBOL cap 1136 224 R0
SYMATTR InstName C4
SYMATTR Value {multPBCond}
SYMBOL AutoGenerated\\AD835 1632 80 R0
SYMATTR InstName U8
SYMBOL voltage 1568 128 R0
WINDOW 123 0 0 Left 0
WINDOW 39 0 0 Left 0
SYMATTR InstName V18
SYMATTR Value -5
SYMBOL voltage 1696 32 R180
WINDOW 0 24 96 Left 2
WINDOW 3 24 16 Left 2
WINDOW 123 0 0 Left 0
WINDOW 39 0 0 Left 0
SYMATTR InstName V19
SYMATTR Value 5
SYMBOL res 1696 128 R0
WINDOW 3 36 61 Left 2
SYMATTR Value {multPBRes}
SYMATTR InstName R11
SYMBOL cap 1696 224 R0
SYMATTR InstName C5
SYMATTR Value {multPBCond}
SYMBOL res 352 272 R90
WINDOW 0 0 56 VBottom 2
WINDOW 3 32 56 VTop 2
SYMATTR InstName R12
SYMATTR Value {ampliAntenneRes1}
SYMBOL cap 464 272 R90
WINDOW 0 0 32 VBottom 2
WINDOW 3 32 32 VTop 2
SYMATTR InstName C6
SYMATTR Value {ampliAntenneCond}
SYMBOL AutoGenerated\\TL074 592 272 R0
SYMATTR InstName U9
SYMBOL voltage 608 240 R270
WINDOW 0 32 56 VTop 2
WINDOW 3 -32 56 VBottom 2
WINDOW 123 0 0 Left 0
WINDOW 39 0 0 Left 0
SYMATTR InstName V20
SYMATTR Value 15
SYMBOL voltage 688 272 R270
WINDOW 0 32 56 VTop 2
WINDOW 3 -32 56 VBottom 2
WINDOW 123 0 0 Left 0
WINDOW 39 0 0 Left 0
SYMATTR InstName V21
SYMATTR Value -15
SYMBOL res 656 384 R90
WINDOW 0 0 56 VBottom 2
WINDOW 3 32 56 VTop 2
SYMATTR InstName R13
SYMATTR Value {ampliAntenneRes3}
SYMBOL cap 640 464 R90
WINDOW 0 0 32 VBottom 2
WINDOW 3 32 32 VTop 2
SYMATTR InstName C7
SYMATTR Value {ampliAntenneCond}
SYMBOL res 368 144 R0
SYMATTR InstName R14
SYMATTR Value {ampliAntenneRes2}
SYMBOL res 352 -192 R90
WINDOW 0 0 56 VBottom 2
WINDOW 3 32 56 VTop 2
SYMATTR InstName R1
SYMATTR Value {ampliAntenneRes1}
SYMBOL cap 464 -192 R90
WINDOW 0 0 32 VBottom 2
WINDOW 3 32 32 VTop 2
SYMATTR InstName C8
SYMATTR Value {ampliAntenneCond}
SYMBOL AutoGenerated\\TL074 592 -192 R0
SYMATTR InstName U1
SYMBOL voltage 608 -224 R270
WINDOW 0 32 56 VTop 2
WINDOW 3 -32 56 VBottom 2
WINDOW 123 0 0 Left 0
WINDOW 39 0 0 Left 0
SYMATTR InstName V2
SYMATTR Value 15
SYMBOL voltage 688 -192 R270
WINDOW 0 32 56 VTop 2
WINDOW 3 -32 56 VBottom 2
WINDOW 123 0 0 Left 0
WINDOW 39 0 0 Left 0
SYMATTR InstName V3
SYMATTR Value -15
SYMBOL res 656 -80 R90
WINDOW 0 0 56 VBottom 2
WINDOW 3 32 56 VTop 2
SYMATTR InstName R2
SYMATTR Value {ampliAntenneRes3}
SYMBOL cap 640 0 R90
WINDOW 0 0 32 VBottom 2
WINDOW 3 32 32 VTop 2
SYMATTR InstName C9
SYMATTR Value {ampliAntenneCond}
SYMBOL res 368 -320 R0
SYMATTR InstName R3
SYMATTR Value {ampliAntenneRes2}
SYMBOL res 352 -656 R90
WINDOW 0 0 56 VBottom 2
WINDOW 3 32 56 VTop 2
SYMATTR InstName R4
SYMATTR Value {ampliAntenneRes1}
SYMBOL cap 464 -656 R90
WINDOW 0 0 32 VBottom 2
WINDOW 3 32 32 VTop 2
SYMATTR InstName C10
SYMATTR Value {ampliAntenneCond}
SYMBOL AutoGenerated\\TL074 592 -656 R0
SYMATTR InstName U2
SYMBOL voltage 608 -688 R270
WINDOW 0 32 56 VTop 2
WINDOW 3 -32 56 VBottom 2
WINDOW 123 0 0 Left 0
WINDOW 39 0 0 Left 0
SYMATTR InstName V5
SYMATTR Value 15
SYMBOL voltage 688 -656 R270
WINDOW 0 32 56 VTop 2
WINDOW 3 -32 56 VBottom 2
WINDOW 123 0 0 Left 0
WINDOW 39 0 0 Left 0
SYMATTR InstName V6
SYMATTR Value -15
SYMBOL res 656 -544 R90
WINDOW 0 0 56 VBottom 2
WINDOW 3 32 56 VTop 2
SYMATTR InstName R5
SYMATTR Value {ampliAntenneRes3}
SYMBOL cap 640 -464 R90
WINDOW 0 0 32 VBottom 2
WINDOW 3 32 32 VTop 2
SYMATTR InstName C11
SYMATTR Value {ampliAntenneCond}
SYMBOL res 368 -784 R0
SYMATTR InstName R6
SYMATTR Value {ampliAntenneRes2}
TEXT 1288 -936 Left 2 !.PARAM ampliAntenneRes1=200\n.PARAM ampliAntenneRes2 = 350\n.PARAM ampliAntenneRes3 = 210k\n.PARAM ampliAntenneCond = 100n\n.PARAM creteRes = 500k\n.PARAM creteCond = 1u\n.PARAM multPBRes = 100k\n.param multPBCond=1u\n \n.PARAM Phase1 = 39.474\n.PARAM Phase2 = 69.476\n.PARAM Phase3 = 99.474\n.PARAM Frequence = 300
TEXT -144 528 Left 2 !.tran 0.4
